/*--------------------------------*- C++ -*----------------------------------*\
  =========                 |
  \\      /  F ield         | OpenFOAM: The Open Source CFD Toolbox
   \\    /   O peration     | Website:  https://openfoam.org
    \\  /    A nd           | Version:  dev
     \\/     M anipulation  |
\*---------------------------------------------------------------------------*/
FoamFile
{
    version     2.0;
    format      ascii;
    class       volScalarField;
    location    "0";
    object      gamma;
}
// * * * * * * * * * * * * * * * * * * * * * * * * * * * * * * * * * * * * * //

dimensions      [0 0 0 0 0 0 0];

internalField   uniform 1;

boundaryField
{
    front
    {
        type            empty;
    }
    back
    {
        type            empty;
    }
    outlet_up
    {
        type            zeroGradient;
    }
    outlet_down
    {
        type            zeroGradient;
    }
    airfoil
    {
        type            zeroGradient;
    }
    inlet
    {
        type            fixedValue;
        value           uniform 1;
    }
    temp1
    {
        type            zeroGradient;
    }
    temp2
    {
        type            zeroGradient;
    }
}


// ************************************************************************* //
