/*--------------------------------*- C++ -*----------------------------------*\
  =========                 |
  \\      /  F ield         | OpenFOAM: The Open Source CFD Toolbox
   \\    /   O peration     | Website:  https://openfoam.org
    \\  /    A nd           | Version:  7
     \\/     M anipulation  |
\*---------------------------------------------------------------------------*/
FoamFile
{
    version     2.0;
    format      ascii;
    class       dictionary;
    location    "system";
    object      fvSchemes;
}
// * * * * * * * * * * * * * * * * * * * * * * * * * * * * * * * * * * * * * //

ddtSchemes
{
    default         steadyState;
}

gradSchemes
{
    default         Gauss linear;

    limited         cellLimited Gauss linear 0.5;

    grad(U)         cellLimited Gauss linear 1;
    grad(R)         $limited;
    grad(gamma)     $limited;
    grad(nuTilda)   $limited;
}

divSchemes
{
    default         none;
    turbulence                      bounded Gauss linearUpwind limited;

    div(phi,U)                      bounded Gauss linearUpwind grad(u);
    div(phi,R)                      $turbulence;
    div(phi,gamma)                  $turbulence;
    div(phi,Rnu)                    $turbulence;
    div(phi,nuTilda)                $turbulence;
    div((nuEff*dev2(T(grad(U)))))   Gauss linear;
    div(nonlinearStress)            Gauss linear;
}

laplacianSchemes
{
    default         Gauss linear corrected;
}

interpolationSchemes
{
    default         linear;
}

snGradSchemes
{
    default         corrected;
}

wallDist
{
    method meshWave;
}


// ************************************************************************* //
