/*--------------------------------*- C++ -*----------------------------------*\
  =========                 |
  \\      /  F ield         | OpenFOAM: The Open Source CFD Toolbox
   \\    /   O peration     | Website:  https://openfoam.org
    \\  /    A nd           | Version:  7
     \\/     M anipulation  |
\*---------------------------------------------------------------------------*/
FoamFile
{
    version     2.0;
    format      ascii;
    class       dictionary;
    location    "system";
    object      fvSolution;
}
// * * * * * * * * * * * * * * * * * * * * * * * * * * * * * * * * * * * * * //

solvers
{
    p
    {
        solver          PCG;
        preconditioner  FDIC;
        tolerance       1e-15;
        relTol          0.001;
    }

    "(U|k|epsilon|omega|f|v2|R|Rnu|gamma|nuTilda)"
    {
        solver          PBiCGStab;
        preconditioner  DILU;
        tolerance       1e-20;
        relTol          0.0;
    }

    Phi
    {
        $p;
    }
}

SIMPLE
{
    nNonOrthogonalCorrectors 1;
    consistent      yes;

    residualControl
    {
        p               1e-9;
        U               1e-9;
        "(k|epsilon|omega|f|v2|R|Rnu|gamma|nuTilda)" 1e-15;
    }
}

    

potentialFlow
{
    nNonOrthogonalCorrectors 10;
}

relaxationFactors
{
    fields
    {
	    p		0.9;
    }
    equations
    {
        U               0.9; // 0.9 is more stable but 0.95 more convergent
        ".*"            0.9; // 0.9 is more stable but 0.95 more convergent
    }
}


// ************************************************************************* //
