/*--------------------------------*- C++ -*----------------------------------*\
  =========                 |
  \\      /  F ield         | OpenFOAM: The Open Source CFD Toolbox
   \\    /   O peration     | Website:  https://openfoam.org
    \\  /    A nd           | Version:  7
     \\/     M anipulation  |
\*---------------------------------------------------------------------------*/
FoamFile
{
    version     2.0;
    format      ascii;
    class       dictionary;
    location    "system";
    object      fvSolution;
}
// * * * * * * * * * * * * * * * * * * * * * * * * * * * * * * * * * * * * * //

solvers
{
    p
    {
        solver          PCG;
        preconditioner  DIC;
        tolerance       1e-9;
        relTol          0.001;
        maxIter         100;
    }

    "(U|k|epsilon|omega|f|v2|R|gamma|nuTilda)"
    {
        solver          smoothSolver;
        smoother        symGaussSeidel;
        tolerance       1e-16;
        relTol          0.1;
        maxIter         100;
        minIter         1;
    }

    Phi
    {
        $p
    }
}

SIMPLE
{
    nNonOrthogonalCorrectors 0;
    consistent      yes;

    residualControl
    {
        p               1e-9;
        U               1e-9;
        "(k|epsilon|omega|f|v2|R|gamma|nuTilda)" 1e-15;
    }
}

potentialFlow
{
    nNonOrthogonalCorrectors 10;
}

relaxationFactors
{
    fields
    {
	p		0.3;
    }
    equations
    {
        U               0.7; // 0.9 is more stable but 0.95 more convergent
        ".*"            0.5; // 0.9 is more stable but 0.95 more convergent
    }
}


// ************************************************************************* //
