/*--------------------------------*- C++ -*----------------------------------*\
  =========                 |
  \\      /  F ield         | OpenFOAM: The Open Source CFD Toolbox
   \\    /   O peration     | Website:  https://openfoam.org
    \\  /    A nd           | Version:  7
     \\/     M anipulation  |
\*---------------------------------------------------------------------------*/
FoamFile
{
    version     2.0;
    format      ascii;
    class       polyBoundaryMesh;
    location    "constant/polyMesh";
    object      boundary;
}
// * * * * * * * * * * * * * * * * * * * * * * * * * * * * * * * * * * * * * //

8
(
    front
    {
        type            empty;
        physicalType    patch;
        nFaces          14336;
        startFace       28384;
    }
    back
    {
        type            empty;
        physicalType    patch;
        nFaces          14336;
        startFace       42720;
    }
    outlet_up
    {
        type            patch;
        physicalType    patch;
        nFaces          64;
        startFace       57056;
    }
    outlet_down
    {
        type            patch;
        physicalType    patch;
        nFaces          64;
        startFace       57120;
    }
    airfoil
    {
        type            wall;
        physicalType    patch;
        nFaces          128;
        startFace       57184;
    }
    inlet
    {
        type            patch;
        physicalType    patch;
        nFaces          224;
        startFace       57312;
    }
    temp1
    {
        type            patch;
        physicalType    patch;
        nFaces          48;
        startFace       57536;
    }
    temp2
    {
        type            patch;
        nFaces          48;
        startFace       57584;
    }
)

// ************************************************************************* //
